CAU
     RDKit          3D

 45 47  0  0  0  0  0  0  0  0999 V2000
   -1.9057    0.1452    0.5522 C   0  0  0  0  0  0  0  0  0  0  0  0
   -3.3283    0.0205    1.0412 N   0  0  0  0  0  0  0  0  0  0  0  0
   -4.3776    0.7834    0.2929 C   0  0  0  0  0  0  0  0  0  0  0  0
   -1.7020   -0.8633   -0.5904 C   0  0  2  0  0  0  0  0  0  0  0  0
   -2.3711   -2.0781   -0.2079 O   0  0  0  0  0  0  0  0  0  0  0  0
   -0.2155   -1.0866   -0.8752 C   0  0  0  0  0  0  0  0  0  0  0  0
    0.3705    0.1820   -1.1806 O   0  0  0  0  0  0  0  0  0  0  0  0
    1.6352   -0.0136   -1.6998 C   0  0  0  0  0  0  0  0  0  0  0  0
    1.7615   -0.0989   -3.0922 C   0  0  0  0  0  0  0  0  0  0  0  0
    2.7818   -0.0829   -0.8751 C   0  0  0  0  0  0  0  0  0  0  0  0
    3.0087   -0.3109   -3.6721 C   0  0  0  0  0  0  0  0  0  0  0  0
    4.0126   -0.3089   -1.4952 C   0  0  0  0  0  0  0  0  0  0  0  0
    3.0332    0.0315    0.5334 C   0  0  0  0  0  0  0  0  0  0  0  0
    4.1560   -0.4323   -2.8834 C   0  0  0  0  0  0  0  0  0  0  0  0
    4.9635   -0.3705   -0.5043 N   0  0  0  0  0  0  0  0  0  0  0  0
    4.3990   -0.1691    0.7321 C   0  0  0  0  0  0  0  0  0  0  0  0
    2.2295    0.2967    1.6630 C   0  0  0  0  0  0  0  0  0  0  0  0
    4.9970   -0.1402    1.9976 C   0  0  0  0  0  0  0  0  0  0  0  0
    2.8095    0.3319    2.9365 C   0  0  0  0  0  0  0  0  0  0  0  0
    4.1742    0.1117    3.0982 C   0  0  0  0  0  0  0  0  0  0  0  0
   -4.3328    2.2486    0.7074 C   0  0  0  0  0  0  0  0  0  0  0  0
   -5.7303    0.1607    0.6180 C   0  0  0  0  0  0  0  0  0  0  0  0
   -1.2908   -0.1254    1.4168 H   0  0  0  0  0  0  0  0  0  0  0  0
   -1.7032    1.1811    0.2700 H   0  0  0  0  0  0  0  0  0  0  0  0
   -3.3765    0.2265    2.0467 H   0  0  0  0  0  0  0  0  0  0  0  0
   -3.5207   -0.9969    0.9562 H   0  0  0  0  0  0  0  0  0  0  0  0
   -4.1693    0.6740   -0.7764 H   0  0  0  0  0  0  0  0  0  0  0  0
   -2.1966   -0.4844   -1.4923 H   0  0  0  0  0  0  0  0  0  0  0  0
   -2.1471   -2.7633   -0.8711 H   0  0  0  0  0  0  0  0  0  0  0  0
    0.2720   -1.5371   -0.0014 H   0  0  0  0  0  0  0  0  0  0  0  0
   -0.1163   -1.7922   -1.7112 H   0  0  0  0  0  0  0  0  0  0  0  0
    0.8857   -0.0035   -3.7275 H   0  0  0  0  0  0  0  0  0  0  0  0
    3.0961   -0.3825   -4.7546 H   0  0  0  0  0  0  0  0  0  0  0  0
    5.1271   -0.6000   -3.3407 H   0  0  0  0  0  0  0  0  0  0  0  0
    5.9488   -0.5254   -0.6642 H   0  0  0  0  0  0  0  0  0  0  0  0
    1.1712    0.4913    1.5472 H   0  0  0  0  0  0  0  0  0  0  0  0
    6.0633   -0.2994    2.1271 H   0  0  0  0  0  0  0  0  0  0  0  0
    2.1946    0.5413    3.8081 H   0  0  0  0  0  0  0  0  0  0  0  0
    4.6121    0.1457    4.0940 H   0  0  0  0  0  0  0  0  0  0  0  0
   -4.4836    2.3658    1.7862 H   0  0  0  0  0  0  0  0  0  0  0  0
   -3.3757    2.7116    0.4487 H   0  0  0  0  0  0  0  0  0  0  0  0
   -5.1184    2.8153    0.1960 H   0  0  0  0  0  0  0  0  0  0  0  0
   -5.9479    0.2091    1.6907 H   0  0  0  0  0  0  0  0  0  0  0  0
   -6.5330    0.6830    0.0867 H   0  0  0  0  0  0  0  0  0  0  0  0
   -5.7607   -0.8914    0.3143 H   0  0  0  0  0  0  0  0  0  0  0  0
  1  2  1  0
  2  3  1  0
  4  1  1  0
  5  4  1  0
  4  6  1  0
  6  7  1  0
  7  8  1  0
  8  9  1  0
  8 10  2  0
  9 11  2  0
 12 10  1  0
 10 13  1  0
 11 14  1  0
 14 12  2  0
 12 15  1  0
 16 13  1  0
 13 17  2  0
 15 16  1  0
 16 18  2  0
 19 17  1  0
 18 20  1  0
 20 19  2  0
  3 21  1  0
  3 22  1  0
  1 23  1  0
  1 24  1  0
  2 25  1  0
  2 26  1  0
  3 27  1  0
  4 28  1  6
  5 29  1  0
  6 30  1  0
  6 31  1  0
  9 32  1  0
 11 33  1  0
 14 34  1  0
 15 35  1  0
 17 36  1  0
 18 37  1  0
 19 38  1  0
 20 39  1  0
 21 40  1  0
 21 41  1  0
 21 42  1  0
 22 43  1  0
 22 44  1  0
 22 45  1  0
M  CHG  1   2   1
M  END
>  <model_server_result.job_id>  (1) 
SxJCYxHq56oXJndhNvFtJw

>  <model_server_result.datetime_utc>  (1) 
2026-06-20 00:24:46

>  <model_server_result.server_version>  (1) 
0.9.13

>  <model_server_result.query_name>  (1) 
ligand

>  <model_server_result.source_id>  (1) 
pdb-bcif

>  <model_server_result.entry_id>  (1) 
2rh1

>  <model_server_params.name>  (1) 
atom_site

>  <model_server_params.value>  (1) 
{"label_asym_id":"I","auth_seq_id":408}

>  <model_server_stats.io_time_ms>  (1) 
32

>  <model_server_stats.parse_time_ms>  (1) 
6

>  <model_server_stats.create_model_time_ms>  (1) 
3

>  <model_server_stats.query_time_ms>  (1) 
179

>  <model_server_stats.encode_time_ms>  (1) 
0

>  <model_server_stats.element_count>  (1) 
22

>  <ScrubInfo>  (1) 
{"isomerGroup": 0, "isomerId": 0, "confId": 0, "nr_conformers:": 1, "nr_isomers:": 1}

$$$$
