CAU_redocked
     RDKit          3D

 45 47  0  0  0  0  0  0  0  0999 V2000
  -34.7070    5.1800    8.0770 C   0  0  0  0  0  0  0  0  0  0  0  0
  -34.7080    6.2690    7.0110 C   0  0  0  0  0  0  0  0  0  0  0  0
  -33.9050    5.8430    5.7890 C   0  0  0  0  0  0  0  0  0  0  0  0
  -34.0790    7.5100    7.5660 N   0  0  0  0  0  0  0  0  0  0  0  0
  -32.7880    7.9710    6.9350 C   0  0  0  0  0  0  0  0  0  0  0  0
  -32.3170    9.2330    7.6740 C   0  0  2  0  0  0  0  0  0  0  0  0
  -33.4920    9.9950    8.0040 O   0  0  0  0  0  0  0  0  0  0  0  0
  -31.3260   10.0360    6.8270 C   0  0  0  0  0  0  0  0  0  0  0  0
  -30.0070    9.7310    7.2870 O   0  0  0  0  0  0  0  0  0  0  0  0
  -29.1000   10.5490    6.6410 C   0  0  0  0  0  0  0  0  0  0  0  0
  -29.5350   11.8210    6.2500 C   0  0  0  0  0  0  0  0  0  0  0  0
  -28.6710   12.6840    5.5820 C   0  0  0  0  0  0  0  0  0  0  0  0
  -27.3560   12.3060    5.3000 C   0  0  0  0  0  0  0  0  0  0  0  0
  -26.9300   11.0440    5.7310 C   0  0  0  0  0  0  0  0  0  0  0  0
  -25.7030   10.4370    5.6010 N   0  0  0  0  0  0  0  0  0  0  0  0
  -25.7010    9.1990    6.1950 C   0  0  0  0  0  0  0  0  0  0  0  0
  -24.6700    8.2570    6.3030 C   0  0  0  0  0  0  0  0  0  0  0  0
  -24.9440    7.0730    6.9910 C   0  0  0  0  0  0  0  0  0  0  0  0
  -26.1960    6.8430    7.5530 C   0  0  0  0  0  0  0  0  0  0  0  0
  -27.2150    7.7960    7.4320 C   0  0  0  0  0  0  0  0  0  0  0  0
  -26.9730    8.9970    6.7310 C   0  0  0  0  0  0  0  0  0  0  0  0
  -27.7610   10.1540    6.4150 C   0  0  0  0  0  0  0  0  0  0  0  0
  -34.7074    5.6434    9.0746 H   0  0  0  0  0  0  0  0  0  0  0  0
  -35.6046    4.5544    7.9629 H   0  0  0  0  0  0  0  0  0  0  0  0
  -33.8083    4.5561    7.9629 H   0  0  0  0  0  0  0  0  0  0  0  0
  -35.7519    6.4516    6.7162 H   0  0  0  0  0  0  0  0  0  0  0  0
  -32.9766    5.3505    6.1138 H   0  0  0  0  0  0  0  0  0  0  0  0
  -34.5001    5.1420    5.1853 H   0  0  0  0  0  0  0  0  0  0  0  0
  -33.6583    6.7288    5.1853 H   0  0  0  0  0  0  0  0  0  0  0  0
  -34.7580    8.2820    7.5900 H   0  0  0  0  0  0  0  0  0  0  0  0
  -33.8130    7.3430    8.5570 H   0  0  0  0  0  0  0  0  0  0  0  0
  -32.0272    7.1815    7.0239 H   0  0  0  0  0  0  0  0  0  0  0  0
  -32.9433    8.1907    5.8684 H   0  0  0  0  0  0  0  0  0  0  0  0
  -31.7736    8.9674    8.5928 H   0  0  0  0  0  0  0  0  0  0  0  0
  -33.6200    9.9400    8.9740 H   0  0  0  0  0  0  0  0  0  0  0  0
  -31.4266    9.7559    5.7680 H   0  0  0  0  0  0  0  0  0  0  0  0
  -31.5255   11.1135    6.9223 H   0  0  0  0  0  0  0  0  0  0  0  0
  -30.5642   12.1398    6.4717 H   0  0  0  0  0  0  0  0  0  0  0  0
  -29.0285   13.6770    5.2720 H   0  0  0  0  0  0  0  0  0  0  0  0
  -26.6766   12.9789    4.7563 H   0  0  0  0  0  0  0  0  0  0  0  0
  -24.9030   10.8540    5.1450 H   0  0  0  0  0  0  0  0  0  0  0  0
  -23.6798    8.4432    5.8616 H   0  0  0  0  0  0  0  0  0  0  0  0
  -24.1577    6.3102    7.0902 H   0  0  0  0  0  0  0  0  0  0  0  0
  -26.3867    5.9057    8.0963 H   0  0  0  0  0  0  0  0  0  0  0  0
  -28.2012    7.6091    7.8820 H   0  0  0  0  0  0  0  0  0  0  0  0
  1  2  1  0
  2  3  1  0
  2  4  1  0
  4  5  1  0
  5  6  1  0
  6  7  1  0
  6  8  1  0
  8  9  1  0
  9 10  1  0
 10 11  1  0
 11 12  2  0
 12 13  1  0
 13 14  2  0
 14 15  1  0
 15 16  1  0
 16 17  2  0
 17 18  1  0
 18 19  2  0
 19 20  1  0
 20 21  2  0
 21 22  1  0
 22 10  2  0
 22 14  1  0
 21 16  1  0
  1 23  1  0
  1 24  1  0
  1 25  1  0
  2 26  1  0
  3 27  1  0
  3 28  1  0
  3 29  1  0
  4 30  1  0
  4 31  1  0
  5 32  1  0
  5 33  1  0
  6 34  1  1
  7 35  1  0
  8 36  1  0
  8 37  1  0
 11 38  1  0
 12 39  1  0
 13 40  1  0
 15 41  1  0
 17 42  1  0
 18 43  1  0
 19 44  1  0
 20 45  1  0
M  CHG  1   4   1
M  END
>  <meeko>  (1) 
{"is_sidechain": [false], "free_energy": -9.98, "intermolecular_energy": -13.772, "internal_energy": -0.39}

$$$$
CAU_redocked
     RDKit          3D

 45 47  0  0  0  0  0  0  0  0999 V2000
  -27.4290    5.3860    8.6170 C   0  0  0  0  0  0  0  0  0  0  0  0
  -26.0430    4.8000    8.3720 C   0  0  0  0  0  0  0  0  0  0  0  0
  -25.2110    4.8050    9.6480 C   0  0  0  0  0  0  0  0  0  0  0  0
  -25.3260    5.6270    7.3500 N   0  0  0  0  0  0  0  0  0  0  0  0
  -25.9540    6.9430    6.9630 C   0  0  0  0  0  0  0  0  0  0  0  0
  -24.8400    7.9980    6.8720 C   0  0  2  0  0  0  0  0  0  0  0  0
  -24.1070    7.9490    8.1090 O   0  0  0  0  0  0  0  0  0  0  0  0
  -25.4130    9.3890    6.5930 C   0  0  0  0  0  0  0  0  0  0  0  0
  -26.5390    9.2350    5.7250 O   0  0  0  0  0  0  0  0  0  0  0  0
  -27.2210   10.4340    5.6480 C   0  0  0  0  0  0  0  0  0  0  0  0
  -26.5640   11.5220    5.0610 C   0  0  0  0  0  0  0  0  0  0  0  0
  -27.1950   12.7590    4.9700 C   0  0  0  0  0  0  0  0  0  0  0  0
  -28.4950   12.9380    5.4500 C   0  0  0  0  0  0  0  0  0  0  0  0
  -29.1480   11.8290    6.0030 C   0  0  0  0  0  0  0  0  0  0  0  0
  -30.4140   11.7250    6.5270 N   0  0  0  0  0  0  0  0  0  0  0  0
  -30.6730   10.4400    6.9390 C   0  0  0  0  0  0  0  0  0  0  0  0
  -31.8280    9.8970    7.5150 C   0  0  0  0  0  0  0  0  0  0  0  0
  -31.8220    8.5340    7.8180 C   0  0  0  0  0  0  0  0  0  0  0  0
  -30.7070    7.7440    7.5490 C   0  0  0  0  0  0  0  0  0  0  0  0
  -29.5600    8.3060    6.9750 C   0  0  0  0  0  0  0  0  0  0  0  0
  -29.5320    9.6840    6.6690 C   0  0  0  0  0  0  0  0  0  0  0  0
  -28.5550   10.5680    6.1000 C   0  0  0  0  0  0  0  0  0  0  0  0
  -27.6088    5.4620    9.6995 H   0  0  0  0  0  0  0  0  0  0  0  0
  -27.4893    6.3866    8.1641 H   0  0  0  0  0  0  0  0  0  0  0  0
  -28.1888    4.7321    8.1641 H   0  0  0  0  0  0  0  0  0  0  0  0
  -26.1707    3.7644    8.0239 H   0  0  0  0  0  0  0  0  0  0  0  0
  -25.8794    4.8010   10.5216 H   0  0  0  0  0  0  0  0  0  0  0  0
  -24.5710    3.9107    9.6719 H   0  0  0  0  0  0  0  0  0  0  0  0
  -24.5818    5.7069    9.6719 H   0  0  0  0  0  0  0  0  0  0  0  0
  -24.3440    5.7680    7.6210 H   0  0  0  0  0  0  0  0  0  0  0  0
  -25.2940    5.1050    6.4510 H   0  0  0  0  0  0  0  0  0  0  0  0
  -26.4542    6.8446    5.9883 H   0  0  0  0  0  0  0  0  0  0  0  0
  -26.7010    7.2427    7.7127 H   0  0  0  0  0  0  0  0  0  0  0  0
  -24.1658    7.7824    6.0300 H   0  0  0  0  0  0  0  0  0  0  0  0
  -23.3270    8.5340    8.0170 H   0  0  0  0  0  0  0  0  0  0  0  0
  -25.7296    9.8587    7.5359 H   0  0  0  0  0  0  0  0  0  0  0  0
  -24.6520   10.0295    6.1232 H   0  0  0  0  0  0  0  0  0  0  0  0
  -25.5435   11.3984    4.6696 H   0  0  0  0  0  0  0  0  0  0  0  0
  -26.6633   13.6072    4.5141 H   0  0  0  0  0  0  0  0  0  0  0  0
  -28.9900   13.9188    5.3953 H   0  0  0  0  0  0  0  0  0  0  0  0
  -31.0740   12.4880    6.5860 H   0  0  0  0  0  0  0  0  0  0  0  0
  -32.7091   10.5223    7.7215 H   0  0  0  0  0  0  0  0  0  0  0  0
  -32.7116    8.0772    8.2762 H   0  0  0  0  0  0  0  0  0  0  0  0
  -30.7275    6.6707    7.7892 H   0  0  0  0  0  0  0  0  0  0  0  0
  -28.6836    7.6758    6.7632 H   0  0  0  0  0  0  0  0  0  0  0  0
  1  2  1  0
  2  3  1  0
  2  4  1  0
  4  5  1  0
  5  6  1  0
  6  7  1  0
  6  8  1  0
  8  9  1  0
  9 10  1  0
 10 11  1  0
 11 12  2  0
 12 13  1  0
 13 14  2  0
 14 15  1  0
 15 16  1  0
 16 17  2  0
 17 18  1  0
 18 19  2  0
 19 20  1  0
 20 21  2  0
 21 22  1  0
 22 10  2  0
 22 14  1  0
 21 16  1  0
  1 23  1  0
  1 24  1  0
  1 25  1  0
  2 26  1  0
  3 27  1  0
  3 28  1  0
  3 29  1  0
  4 30  1  0
  4 31  1  0
  5 32  1  0
  5 33  1  0
  6 34  1  6
  7 35  1  0
  8 36  1  0
  8 37  1  0
 11 38  1  0
 12 39  1  0
 13 40  1  0
 15 41  1  0
 17 42  1  0
 18 43  1  0
 19 44  1  0
 20 45  1  0
M  CHG  1   4   1
M  END
>  <meeko>  (2) 
{"is_sidechain": [false], "free_energy": -9.411, "intermolecular_energy": -12.62, "internal_energy": -0.757}

$$$$
CAU_redocked
     RDKit          3D

 45 47  0  0  0  0  0  0  0  0999 V2000
  -32.4540    7.0290    5.1600 C   0  0  0  0  0  0  0  0  0  0  0  0
  -31.7060    7.8260    6.2230 C   0  0  0  0  0  0  0  0  0  0  0  0
  -31.7720    7.1330    7.5770 C   0  0  0  0  0  0  0  0  0  0  0  0
  -32.3330    9.1780    6.3650 N   0  0  0  0  0  0  0  0  0  0  0  0
  -32.1820    9.8710    7.6970 C   0  0  0  0  0  0  0  0  0  0  0  0
  -31.5160   11.2350    7.4560 C   0  0  2  0  0  0  0  0  0  0  0  0
  -31.8460   11.6370    6.1150 O   0  0  0  0  0  0  0  0  0  0  0  0
  -30.0040   11.1630    7.6830 C   0  0  0  0  0  0  0  0  0  0  0  0
  -29.4860   10.1150    6.8590 O   0  0  0  0  0  0  0  0  0  0  0  0
  -28.2420   10.4830    6.3840 C   0  0  0  0  0  0  0  0  0  0  0  0
  -28.1110   11.7590    5.8210 C   0  0  0  0  0  0  0  0  0  0  0  0
  -26.8870   12.1800    5.3120 C   0  0  0  0  0  0  0  0  0  0  0  0
  -25.7650   11.3480    5.3610 C   0  0  0  0  0  0  0  0  0  0  0  0
  -25.9080   10.0890    5.9590 C   0  0  0  0  0  0  0  0  0  0  0  0
  -24.9780    9.0950    6.1500 N   0  0  0  0  0  0  0  0  0  0  0  0
  -25.5310    8.0240    6.8080 C   0  0  0  0  0  0  0  0  0  0  0  0
  -24.9450    6.8170    7.2080 C   0  0  0  0  0  0  0  0  0  0  0  0
  -25.7480    5.9020    7.8920 C   0  0  0  0  0  0  0  0  0  0  0  0
  -27.0830    6.1850    8.1680 C   0  0  0  0  0  0  0  0  0  0  0  0
  -27.6510    7.3970    7.7580 C   0  0  0  0  0  0  0  0  0  0  0  0
  -26.8670    8.3370    7.0540 C   0  0  0  0  0  0  0  0  0  0  0  0
  -27.1160    9.6340    6.4930 C   0  0  0  0  0  0  0  0  0  0  0  0
  -33.1287    6.3101    5.6478 H   0  0  0  0  0  0  0  0  0  0  0  0
  -33.0414    7.7156    4.5326 H   0  0  0  0  0  0  0  0  0  0  0  0
  -31.7316    6.4863    4.5326 H   0  0  0  0  0  0  0  0  0  0  0  0
  -30.6557    7.9085    5.9066 H   0  0  0  0  0  0  0  0  0  0  0  0
  -31.7004    7.8843    8.3773 H   0  0  0  0  0  0  0  0  0  0  0  0
  -32.7257    6.5922    7.6660 H   0  0  0  0  0  0  0  0  0  0  0  0
  -30.9375    6.4219    7.6660 H   0  0  0  0  0  0  0  0  0  0  0  0
  -32.0310    9.8010    5.6050 H   0  0  0  0  0  0  0  0  0  0  0  0
  -33.3630    9.0890    6.2590 H   0  0  0  0  0  0  0  0  0  0  0  0
  -33.1712   10.0155    8.1558 H   0  0  0  0  0  0  0  0  0  0  0  0
  -31.5658    9.2617    8.3746 H   0  0  0  0  0  0  0  0  0  0  0  0
  -31.8871   11.9829    8.1722 H   0  0  0  0  0  0  0  0  0  0  0  0
  -31.0660   11.4600    5.5500 H   0  0  0  0  0  0  0  0  0  0  0  0
  -29.5384   12.1206    7.4068 H   0  0  0  0  0  0  0  0  0  0  0  0
  -29.7843   10.9624    8.7420 H   0  0  0  0  0  0  0  0  0  0  0  0
  -28.9806   12.4315    5.7813 H   0  0  0  0  0  0  0  0  0  0  0  0
  -26.8008   13.1813    4.8648 H   0  0  0  0  0  0  0  0  0  0  0  0
  -24.8002   11.6714    4.9433 H   0  0  0  0  0  0  0  0  0  0  0  0
  -24.0110    9.1520    5.8600 H   0  0  0  0  0  0  0  0  0  0  0  0
  -23.8892    6.5972    6.9911 H   0  0  0  0  0  0  0  0  0  0  0  0
  -25.3192    4.9428    8.2178 H   0  0  0  0  0  0  0  0  0  0  0  0
  -27.6957    5.4511    8.7120 H   0  0  0  0  0  0  0  0  0  0  0  0
  -28.7050    7.6165    7.9836 H   0  0  0  0  0  0  0  0  0  0  0  0
  1  2  1  0
  2  3  1  0
  2  4  1  0
  4  5  1  0
  5  6  1  0
  6  7  1  0
  6  8  1  0
  8  9  1  0
  9 10  1  0
 10 11  1  0
 11 12  2  0
 12 13  1  0
 13 14  2  0
 14 15  1  0
 15 16  1  0
 16 17  2  0
 17 18  1  0
 18 19  2  0
 19 20  1  0
 20 21  2  0
 21 22  1  0
 22 10  2  0
 22 14  1  0
 21 16  1  0
  1 23  1  0
  1 24  1  0
  1 25  1  0
  2 26  1  0
  3 27  1  0
  3 28  1  0
  3 29  1  0
  4 30  1  0
  4 31  1  0
  5 32  1  0
  5 33  1  0
  6 34  1  1
  7 35  1  0
  8 36  1  0
  8 37  1  0
 11 38  1  0
 12 39  1  0
 13 40  1  0
 15 41  1  0
 17 42  1  0
 18 43  1  0
 19 44  1  0
 20 45  1  0
M  CHG  1   4   1
M  END
>  <meeko>  (3) 
{"is_sidechain": [false], "free_energy": -9.387, "intermolecular_energy": -12.412, "internal_energy": -0.932}

$$$$
CAU_redocked
     RDKit          3D

 45 47  0  0  0  0  0  0  0  0999 V2000
  -26.1180    3.8160   12.3740 C   0  0  0  0  0  0  0  0  0  0  0  0
  -26.0140    3.5530   10.8760 C   0  0  0  0  0  0  0  0  0  0  0  0
  -24.5710    3.2970   10.4620 C   0  0  0  0  0  0  0  0  0  0  0  0
  -26.5040    4.7520   10.1240 N   0  0  0  0  0  0  0  0  0  0  0  0
  -26.7830    4.5750    8.6520 C   0  0  0  0  0  0  0  0  0  0  0  0
  -26.5700    5.9300    7.9580 C   0  0  2  0  0  0  0  0  0  0  0  0
  -25.3180    6.4570    8.4320 O   0  0  0  0  0  0  0  0  0  0  0  0
  -27.7370    6.8830    8.2270 C   0  0  0  0  0  0  0  0  0  0  0  0
  -27.9380    7.6740    7.0530 O   0  0  0  0  0  0  0  0  0  0  0  0
  -29.1570    8.3180    7.1420 C   0  0  0  0  0  0  0  0  0  0  0  0
  -30.2290    7.6090    7.6990 C   0  0  0  0  0  0  0  0  0  0  0  0
  -31.4840    8.2000    7.8010 C   0  0  0  0  0  0  0  0  0  0  0  0
  -31.6990    9.5090    7.3620 C   0  0  0  0  0  0  0  0  0  0  0  0
  -30.6070   10.2130    6.8400 C   0  0  0  0  0  0  0  0  0  0  0  0
  -30.5370   11.4980    6.3590 N   0  0  0  0  0  0  0  0  0  0  0  0
  -29.2590   11.8080    5.9650 C   0  0  0  0  0  0  0  0  0  0  0  0
  -28.7470   12.9970    5.4310 C   0  0  0  0  0  0  0  0  0  0  0  0
  -27.3820   13.0420    5.1390 C   0  0  0  0  0  0  0  0  0  0  0  0
  -26.5610   11.9430    5.3770 C   0  0  0  0  0  0  0  0  0  0  0  0
  -27.0920   10.7620    5.9100 C   0  0  0  0  0  0  0  0  0  0  0  0
  -28.4710   10.6820    6.2030 C   0  0  0  0  0  0  0  0  0  0  0  0
  -29.3280    9.6610    6.7330 C   0  0  0  0  0  0  0  0  0  0  0  0
  -25.7683    2.9316   12.9267 H   0  0  0  0  0  0  0  0  0  0  0  0
  -25.4952    4.6834   12.6381 H   0  0  0  0  0  0  0  0  0  0  0  0
  -27.1656    4.0228   12.6381 H   0  0  0  0  0  0  0  0  0  0  0  0
  -26.6225    2.6659   10.6460 H   0  0  0  0  0  0  0  0  0  0  0  0
  -23.9460    3.1861   11.3604 H   0  0  0  0  0  0  0  0  0  0  0  0
  -24.5193    2.3757    9.8633 H   0  0  0  0  0  0  0  0  0  0  0  0
  -24.2055    4.1443    9.8633 H   0  0  0  0  0  0  0  0  0  0  0  0
  -27.3200    5.1660   10.5930 H   0  0  0  0  0  0  0  0  0  0  0  0
  -25.7700    5.4880   10.1410 H   0  0  0  0  0  0  0  0  0  0  0  0
  -26.0951    3.8278    8.2296 H   0  0  0  0  0  0  0  0  0  0  0  0
  -27.8154    4.2274    8.4994 H   0  0  0  0  0  0  0  0  0  0  0  0
  -26.5348    5.8072    6.8654 H   0  0  0  0  0  0  0  0  0  0  0  0
  -25.1270    7.2730    7.9250 H   0  0  0  0  0  0  0  0  0  0  0  0
  -28.6469    6.3062    8.4494 H   0  0  0  0  0  0  0  0  0  0  0  0
  -27.5141    7.5277    9.0899 H   0  0  0  0  0  0  0  0  0  0  0  0
  -30.0776    6.5801    8.0574 H   0  0  0  0  0  0  0  0  0  0  0  0
  -32.3189    7.6289    8.2333 H   0  0  0  0  0  0  0  0  0  0  0  0
  -32.6949    9.9719    7.4245 H   0  0  0  0  0  0  0  0  0  0  0  0
  -31.3200   12.1370    6.3150 H   0  0  0  0  0  0  0  0  0  0  0  0
  -29.3972   13.8652    5.2479 H   0  0  0  0  0  0  0  0  0  0  0  0
  -26.9489   13.9597    4.7145 H   0  0  0  0  0  0  0  0  0  0  0  0
  -25.4875   12.0029    5.1447 H   0  0  0  0  0  0  0  0  0  0  0  0
  -26.4368    9.8991    6.0999 H   0  0  0  0  0  0  0  0  0  0  0  0
  1  2  1  0
  2  3  1  0
  2  4  1  0
  4  5  1  0
  5  6  1  0
  6  7  1  0
  6  8  1  0
  8  9  1  0
  9 10  1  0
 10 11  1  0
 11 12  2  0
 12 13  1  0
 13 14  2  0
 14 15  1  0
 15 16  1  0
 16 17  2  0
 17 18  1  0
 18 19  2  0
 19 20  1  0
 20 21  2  0
 21 22  1  0
 22 10  2  0
 22 14  1  0
 21 16  1  0
  1 23  1  0
  1 24  1  0
  1 25  1  0
  2 26  1  0
  3 27  1  0
  3 28  1  0
  3 29  1  0
  4 30  1  0
  4 31  1  0
  5 32  1  0
  5 33  1  0
  6 34  1  6
  7 35  1  0
  8 36  1  0
  8 37  1  0
 11 38  1  0
 12 39  1  0
 13 40  1  0
 15 41  1  0
 17 42  1  0
 18 43  1  0
 19 44  1  0
 20 45  1  0
M  CHG  1   4   1
M  END
>  <meeko>  (4) 
{"is_sidechain": [false], "free_energy": -8.964, "intermolecular_energy": -12.341, "internal_energy": -0.419}

$$$$
CAU_redocked
     RDKit          3D

 45 47  0  0  0  0  0  0  0  0999 V2000
  -35.5860    5.9030    8.6750 C   0  0  0  0  0  0  0  0  0  0  0  0
  -35.0370    6.2120    7.2880 C   0  0  0  0  0  0  0  0  0  0  0  0
  -34.1880    5.0610    6.7630 C   0  0  0  0  0  0  0  0  0  0  0  0
  -34.1690    7.4310    7.3550 N   0  0  0  0  0  0  0  0  0  0  0  0
  -32.8240    7.3580    6.6750 C   0  0  0  0  0  0  0  0  0  0  0  0
  -31.7460    7.7390    7.7020 C   0  0  2  0  0  0  0  0  0  0  0  0
  -32.1500    8.9850    8.2980 O   0  0  0  0  0  0  0  0  0  0  0  0
  -30.3650    7.8320    7.0490 C   0  0  0  0  0  0  0  0  0  0  0  0
  -29.4330    8.2540    8.0500 O   0  0  0  0  0  0  0  0  0  0  0  0
  -28.1480    8.1000    7.5680 C   0  0  0  0  0  0  0  0  0  0  0  0
  -27.4980    6.8850    7.8210 C   0  0  0  0  0  0  0  0  0  0  0  0
  -26.1970    6.6780    7.3730 C   0  0  0  0  0  0  0  0  0  0  0  0
  -25.5190    7.6680    6.6570 C   0  0  0  0  0  0  0  0  0  0  0  0
  -26.1980    8.8620    6.3840 C   0  0  0  0  0  0  0  0  0  0  0  0
  -25.7790    9.9760    5.6970 N   0  0  0  0  0  0  0  0  0  0  0  0
  -26.7740   10.9200    5.6350 C   0  0  0  0  0  0  0  0  0  0  0  0
  -26.7770   12.1830    5.0300 C   0  0  0  0  0  0  0  0  0  0  0  0
  -27.9520   12.9340    5.1030 C   0  0  0  0  0  0  0  0  0  0  0  0
  -29.0810   12.4390    5.7500 C   0  0  0  0  0  0  0  0  0  0  0  0
  -29.0570   11.1740    6.3510 C   0  0  0  0  0  0  0  0  0  0  0  0
  -27.8800   10.3970    6.3050 C   0  0  0  0  0  0  0  0  0  0  0  0
  -27.5080    9.1040    6.8040 C   0  0  0  0  0  0  0  0  0  0  0  0
  -34.8953    6.2918    9.4377 H   0  0  0  0  0  0  0  0  0  0  0  0
  -36.5701    6.3797    8.7944 H   0  0  0  0  0  0  0  0  0  0  0  0
  -35.6890    4.8144    8.7944 H   0  0  0  0  0  0  0  0  0  0  0  0
  -35.8925    6.3713    6.6151 H   0  0  0  0  0  0  0  0  0  0  0  0
  -33.7715    4.4964    7.6102 H   0  0  0  0  0  0  0  0  0  0  0  0
  -34.8125    4.3946    6.1499 H   0  0  0  0  0  0  0  0  0  0  0  0
  -33.3670    5.4609    6.1499 H   0  0  0  0  0  0  0  0  0  0  0  0
  -34.6840    8.2610    7.0360 H   0  0  0  0  0  0  0  0  0  0  0  0
  -33.9240    7.6190    8.3470 H   0  0  0  0  0  0  0  0  0  0  0  0
  -32.6461    6.3356    6.3102 H   0  0  0  0  0  0  0  0  0  0  0  0
  -32.7933    8.0471    5.8182 H   0  0  0  0  0  0  0  0  0  0  0  0
  -31.6550    6.9650    8.4783 H   0  0  0  0  0  0  0  0  0  0  0  0
  -31.4290    9.6320    8.1550 H   0  0  0  0  0  0  0  0  0  0  0  0
  -30.0706    6.8480    6.6553 H   0  0  0  0  0  0  0  0  0  0  0  0
  -30.3828    8.5491    6.2151 H   0  0  0  0  0  0  0  0  0  0  0  0
  -28.0186    6.0909    8.3764 H   0  0  0  0  0  0  0  0  0  0  0  0
  -25.6956    5.7222    7.5853 H   0  0  0  0  0  0  0  0  0  0  0  0
  -24.4838    7.5142    6.3182 H   0  0  0  0  0  0  0  0  0  0  0  0
  -24.8650   10.0800    5.2780 H   0  0  0  0  0  0  0  0  0  0  0  0
  -25.8851   12.5699    4.5154 H   0  0  0  0  0  0  0  0  0  0  0  0
  -27.9861   13.9322    4.6421 H   0  0  0  0  0  0  0  0  0  0  0  0
  -29.9979   13.0453    5.7895 H   0  0  0  0  0  0  0  0  0  0  0  0
  -29.9535   10.7872    6.8576 H   0  0  0  0  0  0  0  0  0  0  0  0
  1  2  1  0
  2  3  1  0
  2  4  1  0
  4  5  1  0
  5  6  1  0
  6  7  1  0
  6  8  1  0
  8  9  1  0
  9 10  1  0
 10 11  1  0
 11 12  2  0
 12 13  1  0
 13 14  2  0
 14 15  1  0
 15 16  1  0
 16 17  2  0
 17 18  1  0
 18 19  2  0
 19 20  1  0
 20 21  2  0
 21 22  1  0
 22 10  2  0
 22 14  1  0
 21 16  1  0
  1 23  1  0
  1 24  1  0
  1 25  1  0
  2 26  1  0
  3 27  1  0
  3 28  1  0
  3 29  1  0
  4 30  1  0
  4 31  1  0
  5 32  1  0
  5 33  1  0
  6 34  1  1
  7 35  1  0
  8 36  1  0
  8 37  1  0
 11 38  1  0
 12 39  1  0
 13 40  1  0
 15 41  1  0
 17 42  1  0
 18 43  1  0
 19 44  1  0
 20 45  1  0
M  CHG  1   4   1
M  END
>  <meeko>  (5) 
{"is_sidechain": [false], "free_energy": -8.924, "intermolecular_energy": -12.299, "internal_energy": -0.406}

$$$$
CAU_redocked
     RDKit          3D

 45 47  0  0  0  0  0  0  0  0999 V2000
  -25.3370    4.7170    9.4820 C   0  0  0  0  0  0  0  0  0  0  0  0
  -26.5160    5.4180    8.8170 C   0  0  0  0  0  0  0  0  0  0  0  0
  -27.6040    4.4220    8.4370 C   0  0  0  0  0  0  0  0  0  0  0  0
  -26.0530    6.0950    7.5650 N   0  0  0  0  0  0  0  0  0  0  0  0
  -24.9120    7.0740    7.6920 C   0  0  0  0  0  0  0  0  0  0  0  0
  -24.8970    7.9590    6.4350 C   0  0  2  0  0  0  0  0  0  0  0  0
  -23.5210    8.1230    6.0480 O   0  0  0  0  0  0  0  0  0  0  0  0
  -25.5890    9.3000    6.6920 C   0  0  0  0  0  0  0  0  0  0  0  0
  -26.9150    9.0290    7.1540 O   0  0  0  0  0  0  0  0  0  0  0  0
  -27.7680   10.0100    6.6890 C   0  0  0  0  0  0  0  0  0  0  0  0
  -27.1960   11.1490    6.1080 C   0  0  0  0  0  0  0  0  0  0  0  0
  -28.0050   12.1780    5.6350 C   0  0  0  0  0  0  0  0  0  0  0  0
  -29.3970   12.0930    5.7190 C   0  0  0  0  0  0  0  0  0  0  0  0
  -29.9510   10.9300    6.2710 C   0  0  0  0  0  0  0  0  0  0  0  0
  -31.2680   10.5850    6.4550 N   0  0  0  0  0  0  0  0  0  0  0  0
  -31.3760    9.3330    7.0080 C   0  0  0  0  0  0  0  0  0  0  0  0
  -32.5180    8.5980    7.3500 C   0  0  0  0  0  0  0  0  0  0  0  0
  -32.3310    7.3200    7.8830 C   0  0  0  0  0  0  0  0  0  0  0  0
  -31.0540    6.7980    8.0620 C   0  0  0  0  0  0  0  0  0  0  0  0
  -29.9240    7.5490    7.7160 C   0  0  0  0  0  0  0  0  0  0  0  0
  -30.0800    8.8480    7.1870 C   0  0  0  0  0  0  0  0  0  0  0  0
  -29.1750    9.8700    6.7450 C   0  0  0  0  0  0  0  0  0  0  0  0
  -25.4423    4.7796   10.5752 H   0  0  0  0  0  0  0  0  0  0  0  0
  -25.3180    3.6608    9.1754 H   0  0  0  0  0  0  0  0  0  0  0  0
  -24.4000    5.2048    9.1754 H   0  0  0  0  0  0  0  0  0  0  0  0
  -26.9223    6.1472    9.5333 H   0  0  0  0  0  0  0  0  0  0  0  0
  -28.0567    4.0075    9.3498 H   0  0  0  0  0  0  0  0  0  0  0  0
  -28.3769    4.9321    7.8434 H   0  0  0  0  0  0  0  0  0  0  0  0
  -27.1640    3.6071    7.8434 H   0  0  0  0  0  0  0  0  0  0  0  0
  -25.8470    5.4030    6.8320 H   0  0  0  0  0  0  0  0  0  0  0  0
  -26.8260    6.6780    7.1870 H   0  0  0  0  0  0  0  0  0  0  0  0
  -25.0552    7.6989    8.5858 H   0  0  0  0  0  0  0  0  0  0  0  0
  -23.9579    6.5353    7.7891 H   0  0  0  0  0  0  0  0  0  0  0  0
  -25.4612    7.4863    5.6176 H   0  0  0  0  0  0  0  0  0  0  0  0
  -22.9780    8.1100    6.8630 H   0  0  0  0  0  0  0  0  0  0  0  0
  -25.0355    9.8659    7.4558 H   0  0  0  0  0  0  0  0  0  0  0  0
  -25.6195    9.8984    5.7695 H   0  0  0  0  0  0  0  0  0  0  0  0
  -26.1022   11.2306    6.0252 H   0  0  0  0  0  0  0  0  0  0  0  0
  -27.5420   13.0705    5.1889 H   0  0  0  0  0  0  0  0  0  0  0  0
  -30.0380   12.9131    5.3631 H   0  0  0  0  0  0  0  0  0  0  0  0
  -32.0540   11.1680    6.2020 H   0  0  0  0  0  0  0  0  0  0  0  0
  -33.5266    9.0122    7.2042 H   0  0  0  0  0  0  0  0  0  0  0  0
  -33.2069    6.7175    8.1654 H   0  0  0  0  0  0  0  0  0  0  0  0
  -30.9310    5.7874    8.4786 H   0  0  0  0  0  0  0  0  0  0  0  0
  -28.9176    7.1277    7.8561 H   0  0  0  0  0  0  0  0  0  0  0  0
  1  2  1  0
  2  3  1  0
  2  4  1  0
  4  5  1  0
  5  6  1  0
  6  7  1  0
  6  8  1  0
  8  9  1  0
  9 10  1  0
 10 11  1  0
 11 12  2  0
 12 13  1  0
 13 14  2  0
 14 15  1  0
 15 16  1  0
 16 17  2  0
 17 18  1  0
 18 19  2  0
 19 20  1  0
 20 21  2  0
 21 22  1  0
 22 10  2  0
 22 14  1  0
 21 16  1  0
  1 23  1  0
  1 24  1  0
  1 25  1  0
  2 26  1  0
  3 27  1  0
  3 28  1  0
  3 29  1  0
  4 30  1  0
  4 31  1  0
  5 32  1  0
  5 33  1  0
  6 34  1  6
  7 35  1  0
  8 36  1  0
  8 37  1  0
 11 38  1  0
 12 39  1  0
 13 40  1  0
 15 41  1  0
 17 42  1  0
 18 43  1  0
 19 44  1  0
 20 45  1  0
M  CHG  1   4   1
M  END
>  <meeko>  (6) 
{"is_sidechain": [false], "free_energy": -8.801, "intermolecular_energy": -11.659, "internal_energy": -0.877}

$$$$
CAU_redocked
     RDKit          3D

 45 47  0  0  0  0  0  0  0  0999 V2000
  -35.5670    5.1860   10.2720 C   0  0  0  0  0  0  0  0  0  0  0  0
  -35.7890    5.4110    8.7810 C   0  0  0  0  0  0  0  0  0  0  0  0
  -35.5550    4.1300    7.9910 C   0  0  0  0  0  0  0  0  0  0  0  0
  -34.8250    6.4430    8.2840 N   0  0  0  0  0  0  0  0  0  0  0  0
  -33.8080    6.0010    7.2610 C   0  0  0  0  0  0  0  0  0  0  0  0
  -32.4130    6.4000    7.7670 C   0  0  2  0  0  0  0  0  0  0  0  0
  -32.4180    6.2350    9.1970 O   0  0  0  0  0  0  0  0  0  0  0  0
  -32.0580    7.8300    7.3520 C   0  0  0  0  0  0  0  0  0  0  0  0
  -30.6410    7.9840    7.4730 O   0  0  0  0  0  0  0  0  0  0  0  0
  -30.2860    9.2550    7.0650 C   0  0  0  0  0  0  0  0  0  0  0  0
  -31.2990   10.2180    6.9770 C   0  0  0  0  0  0  0  0  0  0  0  0
  -31.0040   11.5110    6.5570 C   0  0  0  0  0  0  0  0  0  0  0  0
  -29.6970   11.8770    6.2260 C   0  0  0  0  0  0  0  0  0  0  0  0
  -28.6920   10.9090    6.3530 C   0  0  0  0  0  0  0  0  0  0  0  0
  -27.3430   11.0050    6.1130 N   0  0  0  0  0  0  0  0  0  0  0  0
  -26.7070    9.8200    6.3930 C   0  0  0  0  0  0  0  0  0  0  0  0
  -25.3510    9.4840    6.2990 C   0  0  0  0  0  0  0  0  0  0  0  0
  -24.9750    8.1930    6.6770 C   0  0  0  0  0  0  0  0  0  0  0  0
  -25.9170    7.2770    7.1360 C   0  0  0  0  0  0  0  0  0  0  0  0
  -27.2700    7.6310    7.2210 C   0  0  0  0  0  0  0  0  0  0  0  0
  -27.6820    8.9250    6.8340 C   0  0  0  0  0  0  0  0  0  0  0  0
  -28.9450    9.6050    6.7840 C   0  0  0  0  0  0  0  0  0  0  0  0
  -36.2262    5.8541   10.8458 H   0  0  0  0  0  0  0  0  0  0  0  0
  -35.7966    4.1400   10.5232 H   0  0  0  0  0  0  0  0  0  0  0  0
  -34.5180    5.4016   10.5232 H   0  0  0  0  0  0  0  0  0  0  0  0
  -36.8289    5.7410    8.6403 H   0  0  0  0  0  0  0  0  0  0  0  0
  -35.4020    3.2925    8.6875 H   0  0  0  0  0  0  0  0  0  0  0  0
  -36.4305    3.9248    7.3575 H   0  0  0  0  0  0  0  0  0  0  0  0
  -34.6635    4.2476    7.3575 H   0  0  0  0  0  0  0  0  0  0  0  0
  -35.3260    7.2770    7.9500 H   0  0  0  0  0  0  0  0  0  0  0  0
  -34.2380    6.7710    9.0770 H   0  0  0  0  0  0  0  0  0  0  0  0
  -33.8593    4.9098    7.1323 H   0  0  0  0  0  0  0  0  0  0  0  0
  -34.0116    6.4794    6.2916 H   0  0  0  0  0  0  0  0  0  0  0  0
  -31.6379    5.7612    7.3186 H   0  0  0  0  0  0  0  0  0  0  0  0
  -32.2380    5.2920    9.3880 H   0  0  0  0  0  0  0  0  0  0  0  0
  -32.3652    8.0040    6.3102 H   0  0  0  0  0  0  0  0  0  0  0  0
  -32.5785    8.5557    7.9942 H   0  0  0  0  0  0  0  0  0  0  0  0
  -32.3328    9.9507    7.2412 H   0  0  0  0  0  0  0  0  0  0  0  0
  -31.8107   12.2553    6.4845 H   0  0  0  0  0  0  0  0  0  0  0  0
  -29.4641   12.8937    5.8765 H   0  0  0  0  0  0  0  0  0  0  0  0
  -26.8760   11.8410    5.7890 H   0  0  0  0  0  0  0  0  0  0  0  0
  -24.6079   10.2113    5.9400 H   0  0  0  0  0  0  0  0  0  0  0  0
  -23.9180    7.8956    6.6109 H   0  0  0  0  0  0  0  0  0  0  0  0
  -25.5969    6.2677    7.4342 H   0  0  0  0  0  0  0  0  0  0  0  0
  -28.0088    6.9033    7.5880 H   0  0  0  0  0  0  0  0  0  0  0  0
  1  2  1  0
  2  3  1  0
  2  4  1  0
  4  5  1  0
  5  6  1  0
  6  7  1  0
  6  8  1  0
  8  9  1  0
  9 10  1  0
 10 11  1  0
 11 12  2  0
 12 13  1  0
 13 14  2  0
 14 15  1  0
 15 16  1  0
 16 17  2  0
 17 18  1  0
 18 19  2  0
 19 20  1  0
 20 21  2  0
 21 22  1  0
 22 10  2  0
 22 14  1  0
 21 16  1  0
  1 23  1  0
  1 24  1  0
  1 25  1  0
  2 26  1  0
  3 27  1  0
  3 28  1  0
  3 29  1  0
  4 30  1  0
  4 31  1  0
  5 32  1  0
  5 33  1  0
  6 34  1  6
  7 35  1  0
  8 36  1  0
  8 37  1  0
 11 38  1  0
 12 39  1  0
 13 40  1  0
 15 41  1  0
 17 42  1  0
 18 43  1  0
 19 44  1  0
 20 45  1  0
M  CHG  1   4   1
M  END
>  <meeko>  (7) 
{"is_sidechain": [false], "free_energy": -8.705, "intermolecular_energy": -11.958, "internal_energy": -0.445}

$$$$
CAU_redocked
     RDKit          3D

 45 47  0  0  0  0  0  0  0  0999 V2000
  -25.2590    1.9610   11.4730 C   0  0  0  0  0  0  0  0  0  0  0  0
  -26.1170    2.9410   12.2630 C   0  0  0  0  0  0  0  0  0  0  0  0
  -27.5260    2.3990   12.4660 C   0  0  0  0  0  0  0  0  0  0  0  0
  -26.2230    4.2310   11.5100 N   0  0  0  0  0  0  0  0  0  0  0  0
  -25.6170    4.2750   10.1290 C   0  0  0  0  0  0  0  0  0  0  0  0
  -26.7410    4.5640    9.1210 C   0  0  2  0  0  0  0  0  0  0  0  0
  -27.1980    3.2950    8.6200 O   0  0  0  0  0  0  0  0  0  0  0  0
  -26.2600    5.4880    8.0000 C   0  0  0  0  0  0  0  0  0  0  0  0
  -27.3070    6.4210    7.7200 O   0  0  0  0  0  0  0  0  0  0  0  0
  -26.7560    7.5930    7.2390 C   0  0  0  0  0  0  0  0  0  0  0  0
  -25.3790    7.6080    6.9830 C   0  0  0  0  0  0  0  0  0  0  0  0
  -24.7640    8.7640    6.5130 C   0  0  0  0  0  0  0  0  0  0  0  0
  -25.5050    9.9250    6.2770 C   0  0  0  0  0  0  0  0  0  0  0  0
  -26.8860    9.8790    6.5050 C   0  0  0  0  0  0  0  0  0  0  0  0
  -27.8380   10.8570    6.3420 N   0  0  0  0  0  0  0  0  0  0  0  0
  -29.0890   10.3850    6.6550 C   0  0  0  0  0  0  0  0  0  0  0  0
  -30.3290   11.0340    6.6200 C   0  0  0  0  0  0  0  0  0  0  0  0
  -31.4590   10.2930    6.9740 C   0  0  0  0  0  0  0  0  0  0  0  0
  -31.3530    8.9550    7.3420 C   0  0  0  0  0  0  0  0  0  0  0  0
  -30.1030    8.3240    7.3730 C   0  0  0  0  0  0  0  0  0  0  0  0
  -28.9410    9.0500    7.0330 C   0  0  0  0  0  0  0  0  0  0  0  0
  -27.5430    8.7350    6.9650 C   0  0  0  0  0  0  0  0  0  0  0  0
  -24.6982    1.3205   12.1696 H   0  0  0  0  0  0  0  0  0  0  0  0
  -25.9054    1.3358   10.8395 H   0  0  0  0  0  0  0  0  0  0  0  0
  -24.5539    2.5191   10.8395 H   0  0  0  0  0  0  0  0  0  0  0  0
  -25.6400    3.0928   13.2425 H   0  0  0  0  0  0  0  0  0  0  0  0
  -27.7362    2.3182   13.5427 H   0  0  0  0  0  0  0  0  0  0  0  0
  -28.2521    3.0820   12.0009 H   0  0  0  0  0  0  0  0  0  0  0  0
  -27.6072    1.4055   12.0009 H   0  0  0  0  0  0  0  0  0  0  0  0
  -27.1980    4.5560   11.4810 H   0  0  0  0  0  0  0  0  0  0  0  0
  -25.6990    4.9690   12.0230 H   0  0  0  0  0  0  0  0  0  0  0  0
  -24.8591    5.0707   10.0800 H   0  0  0  0  0  0  0  0  0  0  0  0
  -25.1340    3.3148    9.8950 H   0  0  0  0  0  0  0  0  0  0  0  0
  -27.5723    5.0964    9.6064 H   0  0  0  0  0  0  0  0  0  0  0  0
  -27.3560    3.3930    7.6590 H   0  0  0  0  0  0  0  0  0  0  0  0
  -25.3559    6.0260    8.3212 H   0  0  0  0  0  0  0  0  0  0  0  0
  -26.0162    4.9041    7.1002 H   0  0  0  0  0  0  0  0  0  0  0  0
  -24.7807    6.7010    7.1545 H   0  0  0  0  0  0  0  0  0  0  0  0
  -23.6802    8.7641    6.3247 H   0  0  0  0  0  0  0  0  0  0  0  0
  -25.0188   10.8461    5.9232 H   0  0  0  0  0  0  0  0  0  0  0  0
  -27.6460   11.7950    6.0180 H   0  0  0  0  0  0  0  0  0  0  0  0
  -30.4106   12.0903    6.3241 H   0  0  0  0  0  0  0  0  0  0  0  0
  -32.4479   10.7745    6.9617 H   0  0  0  0  0  0  0  0  0  0  0  0
  -32.2573    8.3891    7.6104 H   0  0  0  0  0  0  0  0  0  0  0  0
  -30.0269    7.2653    7.6616 H   0  0  0  0  0  0  0  0  0  0  0  0
  1  2  1  0
  2  3  1  0
  2  4  1  0
  4  5  1  0
  5  6  1  0
  6  7  1  0
  6  8  1  0
  8  9  1  0
  9 10  1  0
 10 11  1  0
 11 12  2  0
 12 13  1  0
 13 14  2  0
 14 15  1  0
 15 16  1  0
 16 17  2  0
 17 18  1  0
 18 19  2  0
 19 20  1  0
 20 21  2  0
 21 22  1  0
 22 10  2  0
 22 14  1  0
 21 16  1  0
  1 23  1  0
  1 24  1  0
  1 25  1  0
  2 26  1  0
  3 27  1  0
  3 28  1  0
  3 29  1  0
  4 30  1  0
  4 31  1  0
  5 32  1  0
  5 33  1  0
  6 34  1  1
  7 35  1  0
  8 36  1  0
  8 37  1  0
 11 38  1  0
 12 39  1  0
 13 40  1  0
 15 41  1  0
 17 42  1  0
 18 43  1  0
 19 44  1  0
 20 45  1  0
M  CHG  1   4   1
M  END
>  <meeko>  (8) 
{"is_sidechain": [false], "free_energy": -8.688, "intermolecular_energy": -11.89, "internal_energy": -0.489}

$$$$
CAU_redocked
     RDKit          3D

 45 47  0  0  0  0  0  0  0  0999 V2000
  -26.1770    3.7410   12.2030 C   0  0  0  0  0  0  0  0  0  0  0  0
  -26.5080    3.5040   10.7350 C   0  0  0  0  0  0  0  0  0  0  0  0
  -25.5110    2.5480   10.0930 C   0  0  0  0  0  0  0  0  0  0  0  0
  -26.4450    4.8030    9.9930 N   0  0  0  0  0  0  0  0  0  0  0  0
  -25.2170    5.0580    9.1530 C   0  0  0  0  0  0  0  0  0  0  0  0
  -25.6370    5.8900    7.9310 C   0  0  2  0  0  0  0  0  0  0  0  0
  -25.0240    7.1840    8.0670 O   0  0  0  0  0  0  0  0  0  0  0  0
  -27.1610    5.9820    7.8170 C   0  0  0  0  0  0  0  0  0  0  0  0
  -27.6000    7.0570    8.6530 O   0  0  0  0  0  0  0  0  0  0  0  0
  -28.3290    7.9530    7.8960 C   0  0  0  0  0  0  0  0  0  0  0  0
  -27.6350    9.0030    7.2830 C   0  0  0  0  0  0  0  0  0  0  0  0
  -28.3180    9.9460    6.5200 C   0  0  0  0  0  0  0  0  0  0  0  0
  -29.7010    9.8580    6.3420 C   0  0  0  0  0  0  0  0  0  0  0  0
  -30.3720    8.7800    6.9340 C   0  0  0  0  0  0  0  0  0  0  0  0
  -31.7060    8.4510    6.9050 N   0  0  0  0  0  0  0  0  0  0  0  0
  -31.9410    7.2890    7.5980 C   0  0  0  0  0  0  0  0  0  0  0  0
  -33.1400    6.5980    7.8110 C   0  0  0  0  0  0  0  0  0  0  0  0
  -33.0830    5.4120    8.5460 C   0  0  0  0  0  0  0  0  0  0  0  0
  -31.8740    4.9330    9.0430 C   0  0  0  0  0  0  0  0  0  0  0  0
  -30.6850    5.6400    8.8210 C   0  0  0  0  0  0  0  0  0  0  0  0
  -30.7130    6.8490    8.0930 C   0  0  0  0  0  0  0  0  0  0  0  0
  -29.7210    7.8070    7.6950 C   0  0  0  0  0  0  0  0  0  0  0  0
  -26.9099    3.2162   12.8335 H   0  0  0  0  0  0  0  0  0  0  0  0
  -25.1682    3.3587   12.4178 H   0  0  0  0  0  0  0  0  0  0  0  0
  -26.2139    4.8192   12.4178 H   0  0  0  0  0  0  0  0  0  0  0  0
  -27.5164    3.0676   10.6836 H   0  0  0  0  0  0  0  0  0  0  0  0
  -24.9555    2.0153   10.8789 H   0  0  0  0  0  0  0  0  0  0  0  0
  -26.0504    1.8209    9.4682 H   0  0  0  0  0  0  0  0  0  0  0  0
  -24.8071    3.1174    9.4682 H   0  0  0  0  0  0  0  0  0  0  0  0
  -27.2950    4.9430    9.4320 H   0  0  0  0  0  0  0  0  0  0  0  0
  -26.4310    5.5850   10.6770 H   0  0  0  0  0  0  0  0  0  0  0  0
  -24.4710    5.6116    9.7421 H   0  0  0  0  0  0  0  0  0  0  0  0
  -24.7724    4.1051    8.8300 H   0  0  0  0  0  0  0  0  0  0  0  0
  -25.2989    5.4120    6.9997 H   0  0  0  0  0  0  0  0  0  0  0  0
  -25.5920    7.8340    7.6050 H   0  0  0  0  0  0  0  0  0  0  0  0
  -27.4465    6.1795    6.7732 H   0  0  0  0  0  0  0  0  0  0  0  0
  -27.6268    5.0366    8.1320 H   0  0  0  0  0  0  0  0  0  0  0  0
  -26.5447    9.0833    7.4048 H   0  0  0  0  0  0  0  0  0  0  0  0
  -27.7617   10.7711    6.0512 H   0  0  0  0  0  0  0  0  0  0  0  0
  -30.2462   10.6119    5.7551 H   0  0  0  0  0  0  0  0  0  0  0  0
  -32.4170    8.9830    6.4230 H   0  0  0  0  0  0  0  0  0  0  0  0
  -34.0934    6.9761    7.4133 H   0  0  0  0  0  0  0  0  0  0  0  0
  -34.0079    4.8474    8.7352 H   0  0  0  0  0  0  0  0  0  0  0  0
  -31.8521    3.9930    9.6139 H   0  0  0  0  0  0  0  0  0  0  0  0
  -29.7324    5.2540    9.2129 H   0  0  0  0  0  0  0  0  0  0  0  0
  1  2  1  0
  2  3  1  0
  2  4  1  0
  4  5  1  0
  5  6  1  0
  6  7  1  0
  6  8  1  0
  8  9  1  0
  9 10  1  0
 10 11  1  0
 11 12  2  0
 12 13  1  0
 13 14  2  0
 14 15  1  0
 15 16  1  0
 16 17  2  0
 17 18  1  0
 18 19  2  0
 19 20  1  0
 20 21  2  0
 21 22  1  0
 22 10  2  0
 22 14  1  0
 21 16  1  0
  1 23  1  0
  1 24  1  0
  1 25  1  0
  2 26  1  0
  3 27  1  0
  3 28  1  0
  3 29  1  0
  4 30  1  0
  4 31  1  0
  5 32  1  0
  5 33  1  0
  6 34  1  6
  7 35  1  0
  8 36  1  0
  8 37  1  0
 11 38  1  0
 12 39  1  0
 13 40  1  0
 15 41  1  0
 17 42  1  0
 18 43  1  0
 19 44  1  0
 20 45  1  0
M  CHG  1   4   1
M  END
>  <meeko>  (9) 
{"is_sidechain": [false], "free_energy": -8.38, "intermolecular_energy": -11.29, "internal_energy": -0.665}

$$$$
